Version 4
SHEET 1 1056 680
WIRE -240 -640 -336 -640
WIRE -176 -640 -240 -640
WIRE -656 -624 -688 -624
WIRE -624 -624 -656 -624
WIRE -240 -576 -240 -640
WIRE -240 -576 -336 -576
WIRE -656 -528 -656 -624
WIRE -624 -528 -656 -528
WIRE -240 -512 -336 -512
WIRE -176 -384 -176 -640
WIRE -176 -384 -224 -384
WIRE -480 -368 -480 -464
WIRE 640 -352 -112 -352
WIRE 848 -352 640 -352
WIRE 640 -320 640 -352
WIRE -688 -224 -688 -624
WIRE -512 -224 -688 -224
WIRE -112 -224 -112 -352
WIRE -112 -224 -512 -224
WIRE -96 -224 -112 -224
WIRE 0 -224 -16 -224
WIRE 96 -224 0 -224
WIRE 400 -224 192 -224
WIRE 640 -224 640 -256
WIRE 640 -224 464 -224
WIRE 640 -192 640 -224
WIRE -512 -144 -512 -224
WIRE -112 -128 -112 -224
WIRE 0 -128 0 -224
WIRE 112 -128 112 -176
WIRE -272 -64 -368 -64
WIRE -224 -64 -224 -384
WIRE -224 -64 -272 -64
WIRE -176 -64 -224 -64
WIRE 640 -64 640 -112
WIRE 640 -64 176 -64
WIRE 736 -64 640 -64
WIRE 848 -64 848 -352
WIRE 848 -64 800 -64
WIRE -688 0 -688 -224
WIRE -272 0 -272 -64
WIRE -176 0 -272 0
WIRE 480 0 176 0
WIRE -368 16 -368 -64
WIRE -176 64 -224 64
WIRE 400 64 176 64
WIRE -224 128 -224 64
WIRE -176 128 -224 128
WIRE 304 128 176 128
WIRE 304 144 304 128
WIRE -176 192 -288 192
WIRE 240 192 176 192
WIRE 240 240 240 192
WIRE -288 256 -288 192
WIRE -224 256 -224 128
WIRE -176 256 -224 256
WIRE 208 256 176 256
WIRE 400 272 400 64
WIRE -688 384 -688 80
WIRE -512 384 -512 -80
WIRE -512 384 -688 384
WIRE -368 384 -368 80
WIRE -368 384 -512 384
WIRE -288 384 -288 336
WIRE -288 384 -368 384
WIRE 0 384 0 304
WIRE 0 384 -288 384
WIRE 208 384 208 256
WIRE 208 384 0 384
WIRE 240 384 240 304
WIRE 240 384 208 384
WIRE 304 384 304 208
WIRE 304 384 240 384
WIRE 400 384 400 352
WIRE 400 384 304 384
WIRE 480 384 480 0
WIRE 480 384 400 384
WIRE -512 416 -512 384
FLAG -512 416 0
FLAG -480 -368 0
SYMBOL voltage -688 -16 R0
WINDOW 123 0 0 Left 2
WINDOW 39 0 0 Left 2
SYMATTR InstName V1
SYMATTR Value 25
SYMBOL PowerProducts\\LT3518 0 96 R0
SYMATTR InstName U1
SYMBOL pmos 192 -176 M270
SYMATTR InstName M1
SYMATTR Value FDS4685
SYMBOL res 0 -240 R90
WINDOW 0 0 56 VBottom 2
WINDOW 3 32 56 VTop 2
SYMATTR InstName R1
SYMATTR Value 68m
SYMBOL LED 400 -208 R270
WINDOW 0 72 32 VTop 2
WINDOW 3 0 32 VBottom 2
SYMATTR InstName D1
SYMATTR Value LXK2-PW14
SYMBOL cap 624 -320 R0
SYMATTR InstName C1
SYMATTR Value 10
SYMBOL ind 624 -208 R0
SYMATTR InstName L1
SYMATTR Value 15
SYMBOL schottky 736 -48 R270
WINDOW 0 36 32 VTop 2
WINDOW 3 -4 32 VBottom 2
SYMATTR InstName D4
SYMATTR Value MBRS360
SYMATTR Description Zener Diode
SYMATTR Type zener
SYMBOL res 384 256 R0
SYMATTR InstName R2
SYMATTR Value 82k
SYMBOL cap 288 144 R0
SYMATTR InstName C3
SYMATTR Value 0.1
SYMBOL cap -384 16 R0
SYMATTR InstName C4
SYMATTR Value 2.2
SYMBOL cap -528 -144 R0
SYMATTR InstName C5
SYMATTR Value 2.2
SYMBOL PowerProducts\\LT1763-3.3 -480 -576 R0
SYMATTR InstName U2
SYMBOL cap -256 -576 R0
SYMATTR InstName C6
SYMATTR Value 0.01
SYMBOL cap 224 240 R0
SYMATTR InstName C2
SYMATTR Value 0.1
SYMBOL voltage -288 240 R0
WINDOW 123 0 0 Left 2
WINDOW 39 0 0 Left 2
SYMATTR InstName V2
SYMATTR Value PULSE(0 3.3 0 0 0 0.005 0.020 100)
TEXT -1080 0 Left 2 !.tran 50ms startup
